Circuit: * C:\Users\Gonzalo\Desktop\Gonzalo\GitHub\TProfesional_EEG\LTSpice_projects\Test INPUT EEG - Output DACs\Draft1.asc

Direct Newton iteration for .op point succeeded.

Date: Mon Sep 26 20:15:56 2022
Total elapsed time: 1.243 seconds.

tnom = 27
temp = 27
method = modified trap
totiter = 200066
traniter = 200062
tranpoints = 100032
accept = 100032
rejected = 0
matrix size = 7
fillins = 0
solver = Normal
Matrix Compiler1: 304 bytes object code size  0.1/0.1/[0.0]
Matrix Compiler2:      40 opcodes  0.1/[0.1]/0.1

