Circuit: * C:\Users\gonza\Desktop\TPProfresional\TProfesional_EEG\LTSpice_projects\Atenuador.asc

Salida_dac: Removing PWL point (0.0117188,2.50061)
Salida_dac: Removing PWL point (7.90234,2.35287)
Salida_dac: Removing PWL point (8.88672,2.46886)
Salida_dac: Removing PWL point (31.0117,2.61172)
Salida_dac: Removing PWL point (38.6992,2.45299)
Salida_dac: Removing PWL point (42.1953,2.48596)
Salida_dac: Removing PWL point (60.582,2.57387)
Salida_dac: Removing PWL point (62.8984,2.52503)
Salida_dac: Removing PWL point (65.1797,2.46032)
Salida_dac: Removing PWL point (69.5547,2.33578)
Salida_dac: Removing PWL point (86.3438,2.53724)
Salida_dac: Removing PWL point (96.9844,2.50061)
Salida_dac: Removing PWL point (98.8242,2.43101)
Salida_dac: Removing PWL point (101.145,2.46276)
Salida_dac: Removing PWL point (102.676,2.53846)
Salida_dac: Removing PWL point (105.434,2.61905)
Salida_dac: Removing PWL point (107.543,2.49206)
Salida_dac: Removing PWL point (124.691,2.41636)
Salida_dac: Removing PWL point (128.832,2.63004)
Salida_dac: Removing PWL point (130.23,2.46032)
Salida_dac: Removing PWL point (136.559,2.57998)
Salida_dac: Removing PWL point (137.137,2.54701)
Salida_dac: Removing PWL point (142.828,2.39927)
Salida_dac: Removing PWL point (173.391,2.42125)
Salida_dac: Removing PWL point (174.52,2.57265)
Salida_dac: Removing PWL point (197.734,2.45665)
Salida_dac: Removing PWL point (200.629,2.44444)
Salida_dac: Removing PWL point (212.926,2.40415)
Salida_dac: Removing PWL point (224.395,2.5177)
Salida_dac: Removing PWL point (224.48,2.48474)
Salida_dac: Removing PWL point (226.391,2.5177)
Salida_dac: Removing PWL point (259.633,2.62882)
Salida_dac: Removing PWL point (299.758,2.5812)
Salida_dac: Removing PWL point (300.758,2.41148)
Salida_dac: Removing PWL point (300.816,2.45299)
Salida_dac: Removing PWL point (301.059,2.19048)
Salida_dac: Removing PWL point (303.941,2.50549)
Salida_dac: Removing PWL point (310.18,2.52747)
Salida_dac: Removing PWL point (315.102,2.44933)
Salida_dac: Removing PWL point (333.574,2.47131)
Salida_dac: Removing PWL point (336.988,2.52381)
Salida_dac: Removing PWL point (340.922,2.37973)
Salida_dac: Removing PWL point (359.039,2.49328)
Salida_dac: Removing PWL point (364.973,2.04029)
Salida_dac: Removing PWL point (409.027,2.05495)
Salida_dac: Removing PWL point (410.254,2.50061)
Salida_dac: Removing PWL point (413.793,2.60684)
Salida_dac: Removing PWL point (418.711,2.59951)
Salida_dac: Removing PWL point (425.313,2.55189)
Salida_dac: Removing PWL point (434.512,2.44444)
Salida_dac: Removing PWL point (438.449,2.40049)
Salida_dac: Removing PWL point (439.496,2.43101)
Salida_dac: Removing PWL point (451.203,2.47741)
Salida_dac: Removing PWL point (460.672,2.63248)
Salida_dac: Removing PWL point (462.816,2.12576)
Salida_dac: Removing PWL point (464.785,2.47131)
Salida_dac: Removing PWL point (469.281,2.77289)
Salida_dac: Removing PWL point (505.621,2.48474)
Salida_dac: Removing PWL point (513.59,2.47131)
Salida_dac: Removing PWL point (514.863,2.58486)
Salida_dac: Removing PWL point (516.867,2.57143)
Salida_dac: Removing PWL point (559.148,2.58364)
Salida_dac: Removing PWL point (582.207,2.37973)
Salida_dac: Removing PWL point (586.887,2.47375)
Salida_dac: Removing PWL point (587.535,1.81563)
Salida_dac: Removing PWL point (644.211,2.57509)
Salida_dac: Removing PWL point (697.707,2.47985)
Salida_dac: Removing PWL point (707.254,2.46764)
Salida_dac: Removing PWL point (718.848,2.49817)
Salida_dac: Removing PWL point (729.18,2.52015)
Salida_dac: Removing PWL point (741.746,2.42979)
Salida_dac: Removing PWL point (743.824,2.5116)
Salida_dac: Removing PWL point (744.047,2.42491)
Salida_dac: Removing PWL point (746.707,2.46398)
Salida_dac: Removing PWL point (746.945,2.50061)
Salida_dac: Removing PWL point (747.777,2.26496)
Salida_dac: Removing PWL point (749.082,2.62882)
Salida_dac: Removing PWL point (749.391,2.64225)
Salida_dac: Removing PWL point (754.449,2.46886)
Salida_dac: Removing PWL point (754.973,2.4652)
Salida_dac: Removing PWL point (755.379,2.50916)
Salida_dac: Removing PWL point (758.695,2.51038)
Salida_dac: Removing PWL point (764.887,2.54335)
Salida_dac: Removing PWL point (771.609,2.47619)
Salida_dac: Removing PWL point (771.648,2.47741)
Salida_dac: Removing PWL point (795.301,2.34921)
Salida_dac: Removing PWL point (801.594,2.40049)
Salida_dac: Removing PWL point (802.414,2.47863)
Salida_dac: Removing PWL point (808.473,2.36996)
Salida_dac: Removing PWL point (813.883,2.65446)
Salida_dac: Removing PWL point (814.66,2.45421)
Salida_dac: Removing PWL point (847.66,2.42857)
Salida_dac: Removing PWL point (866.516,2.38584)
Salida_dac: Removing PWL point (894.934,2.67521)
Salida_dac: Removing PWL point (915.352,2.53358)
Salida_dac: Removing PWL point (928.527,2.54701)
Salida_dac: Removing PWL point (953.758,2.26618)
Salida_dac: Removing PWL point (970.898,2.47985)
Salida_dac: Removing PWL point (976.176,2.46764)
Salida_dac: Removing PWL point (1008.14,2.49451)
Salida_dac: Removing PWL point (1010.61,2.50549)
Salida_dac: Removing PWL point (1048.34,2.50061)
Salida_dac: Removing PWL point (1063.05,2.38339)
Salida_dac: Removing PWL point (1069.55,2.43346)
Salida_dac: Removing PWL point (1101.88,2.52747)
Salida_dac: Removing PWL point (1177.33,1.91331)
Salida_dac: Removing PWL point (1192.03,2.14164)
Salida_dac: Removing PWL point (1196.37,2.58852)
Salida_dac: Removing PWL point (1205.68,2.1917)
Salida_dac: Removing PWL point (1206.1,2.47009)
Salida_dac: Removing PWL point (1243.6,2.558)
Salida_dac: Removing PWL point (1253.72,1.89499)
Salida_dac: Removing PWL point (1284.21,2.37607)
Salida_dac: Removing PWL point (1384.04,2.54945)
Salida_dac: Removing PWL point (1426.37,2.55067)
Salida_dac: Removing PWL point (1498.1,2.18437)
Salida_dac: Removing PWL point (1570.24,2.45177)
Salida_dac: Removing PWL point (1573.86,2.52259)
Salida_dac: Removing PWL point (1574.43,2.43712)
Salida_dac: Removing PWL point (1580.64,2.37118)
Salida_dac: Removing PWL point (1601.06,2.44933)
Salida_dac: Removing PWL point (1657.27,2.52137)
Salida_dac: Removing PWL point (1660.27,2.16972)
Salida_dac: Removing PWL point (1664.54,2.5177)
Salida_dac: Removing PWL point (1718.57,2.68864)
Salida_dac: Removing PWL point (1743.2,2.65201)
Salida_dac: Removing PWL point (1768.81,2.44444)
Salida_dac: Removing PWL point (1784.08,2.53236)
Salida_dac: Removing PWL point (1792.33,2.62637)
Salida_dac: Removing PWL point (1831.69,2.51893)
Salida_dac: Removing PWL point (1833.04,2.55189)
Salida_dac: Removing PWL point (1833.47,2.61294)
Salida_dac: Removing PWL point (1837.24,2.36264)
Salida_dac: Removing PWL point (1869.12,2.36386)
Salida_dac: Removing PWL point (1871.82,2.5116)
Salida_dac: Removing PWL point (1907.14,2.51404)
Salida_dac: Removing PWL point (1943.07,2.48596)
Salida_dac: Removing PWL point (1954.65,2.37485)
Salida_dac: Removing PWL point (1980.47,2.53358)
Salida_dac: Removing PWL point (1983.98,2.61538)
Salida_dac: Removing PWL point (2069.33,2.11966)
Salida_dac: Removing PWL point (2075.11,2.46886)
Salida_dac: Removing PWL point (2079,2.38217)
Salida_dac: Removing PWL point (2193.03,2.51282)
Salida_dac: Removing PWL point (2193.06,2.53236)
Salida_dac: Removing PWL point (2199.01,2.53724)
Salida_dac: Removing PWL point (2215.26,2.50061)
Salida_dac: Removing PWL point (2319.94,2.58974)
Salida_dac: Removing PWL point (2372.96,2.43346)
Salida_dac: Removing PWL point (2374.61,2.48474)
Salida_dac: Removing PWL point (2387.32,2.51282)
Salida_dac: Removing PWL point (2451.13,2.58974)
Salida_dac: Removing PWL point (2473.35,2.34554)
Salida_dac: Removing PWL point (2473.45,2.36508)
Salida_dac: Removing PWL point (2497.89,1.92186)
Salida_dac: Removing PWL point (2554.62,2.50061)
Salida_dac: Removing PWL point (2584.02,2.56532)
Salida_dac: Removing PWL point (2599.21,2.42491)
Salida_dac: Removing PWL point (2618.5,2.45299)
Salida_dac: Removing PWL point (2651.43,2.29792)
Salida_dac: Removing PWL point (2655.21,2.4359)
Salida_dac: Removing PWL point (2771.26,2.48474)
Salida_dac: Removing PWL point (2775.41,2.46642)
Salida_dac: Removing PWL point (2788.72,2.47375)
Salida_dac: Removing PWL point (2846.21,2.20513)
Salida_dac: Removing PWL point (2873.1,2.47009)
Salida_dac: Removing PWL point (2888.43,2.5409)
Salida_dac: Removing PWL point (2896.1,2.48352)
Salida_dac: Removing PWL point (2904.71,2.55556)
Salida_dac: Removing PWL point (2963.57,2.50061)
Salida_dac: Removing PWL point (2974.56,2.48352)
Salida_dac: Removing PWL point (2982.94,2.55922)
Salida_dac: Removing PWL point (2985.62,2.62271)
Salida_dac: Removing PWL point (3019.82,2.70085)
Salida_dac: Removing PWL point (3026.52,2.40415)
Salida_dac: Removing PWL point (3116.41,2.5177)
Salida_dac: Removing PWL point (3124.88,2.52015)
Salida_dac: Removing PWL point (3179.48,1.48718)
Salida_dac: Removing PWL point (3213.2,2.51404)
Salida_dac: Removing PWL point (3226.28,2.50061)
Salida_dac: Removing PWL point (3238.78,2.54212)
Salida_dac: Removing PWL point (3264.89,2.51648)
Salida_dac: Removing PWL point (3297.28,2.57875)
Salida_dac: Removing PWL point (3301.53,2.5177)
Salida_dac: Removing PWL point (3330.55,2.4884)
Salida_dac: Removing PWL point (3338.65,2.49939)
Salida_dac: Removing PWL point (3357.52,2.50061)
Salida_dac: Removing PWL point (3382.3,2.54579)
Salida_dac: Removing PWL point (3411.87,2.44444)
Salida_dac: Removing PWL point (3430.39,2.47741)
Salida_dac: Removing PWL point (3463.82,2.58242)
Salida_dac: Removing PWL point (3533.89,2.5116)
Salida_dac: Removing PWL point (3557.82,2.80342)
Salida_dac: Removing PWL point (3582.59,2.51282)
WARNING: Node NC_01 is floating.

WARNING: Less than two connections to node NC_01.  This node is used by C:X1:4.
Direct Newton iteration failed to find .op point.  (Use ".option noopiter" to skip.)
Starting Gmin stepping
Gmin = 10
Gmin = 1.07374
vernier = 0.5
vernier = 0.25
vernier = 0.125
vernier = 0.0625
Gmin = 0.995033
vernier = 0.03125
vernier = 0.015625
vernier = 0.0078125
vernier = 0.00390625
Gmin = 0.999816
vernier = 0.00195313
vernier = 0.000976563
vernier = 0.000488281
Gmin = 0
Gmin stepping failed

Starting source stepping with srcstepmethod=0
Source Step = 3.0303%
Source Step = 24.4318%
vernier = 0.015625
Source Step = 24.2661%
Starting source stepping with srcstepmethod=1
Source Step = 3.0303%
Source Step = 33.3333%
Source Step = 63.6364%
Source Step = 93.9394%
Source Step = 100%
Source Step = 100%
Source Step = 100%
Source Step = 100%
Source stepping succeeded in finding the operating point.


Date: Sat Mar 19 18:46:30 2022
Total elapsed time: 15.715 seconds.

tnom = 27
temp = 27
method = modified trap
totiter = 136785
traniter = 131042
tranpoints = 65522
accept = 52435
rejected = 13087
matrix size = 57
fillins = 102
solver = Normal
Thread vector: 21.9/15.4[4] 8.6/4.3[4] 8.2/3.3[4] 0.3/2.5[1]  2592/500
Matrix Compiler1: 8.33 KB object code size  3.3/1.9/[0.8]
Matrix Compiler2: 8.07 KB object code size  2.5/2.6/[0.6]

