Circuit: * C:\Users\Gonzalo\Desktop\Gonzalo\GitHub TP Prof\TProfesional_EEG\LTSpice_projects\Atenuador.asc

WARNING: Node NC_02 is floating.

WARNING: Less than two connections to node NC_01.  This node is used by R3.
WARNING: Less than two connections to node NC_02.  This node is used by C:X1:4.
WARNING: Less than two connections to node N006.  This node is used by R7.
Direct Newton iteration failed to find .op point.  (Use ".option noopiter" to skip.)
Starting Gmin stepping
Gmin = 10
Gmin = 1.07374
vernier = 0.5
vernier = 0.25
vernier = 0.125
vernier = 0.0625
Gmin = 0.995033
vernier = 0.03125
vernier = 0.015625
vernier = 0.0078125
vernier = 0.00390625
Gmin = 0.999816
vernier = 0.00195313
vernier = 0.000976563
vernier = 0.000488281
Gmin = 0
Gmin stepping failed

Starting source stepping with srcstepmethod=0
Source Step = 3.0303%
Source Step = 24.4318%
vernier = 0.015625
Source Step = 24.2661%
Starting source stepping with srcstepmethod=1
Source Step = 3.0303%
Source Step = 33.3333%
Source Step = 63.6364%
Source Step = 93.9394%
Source Step = 100%
Source Step = 99.003%
Source Step = 99.0326%
Source stepping failed

Pseudo Transient succeeded in finding the operating point at 363.104 ms.

Date: Thu Dec 01 21:12:06 2022
Total elapsed time: 4.166 seconds.

tnom = 27
temp = 27
method = modified trap
totiter = 42264
traniter = 30566
tranpoints = 15284
accept = 10911
rejected = 4383
matrix size = 67
fillins = 85
solver = Normal
Thread vector: 24.9/17.7[4] 12.4/7.8[4] 8.8/17.6[1] 0.4/3.1[1]  2592/500
Matrix Compiler1: 7.77 KB object code size  4.5/2.3/[1.0]
Matrix Compiler2: 8.88 KB object code size  3.6/3.3/[0.6]

