Circuit: * C:\Users\gonza\Desktop\TPProfresional\TProfesional_EEG\LTSpice_projects\BandPassFilter.asc

Fatal Error: No analysis request found.
