Circuit: * C:\Users\gonza\Desktop\TPProfresional\TProfesional_EEG\LTSpice_projects\Draft4.asc

Direct Newton iteration for .op point succeeded.

Date: Mon Feb 28 16:46:03 2022
Total elapsed time: 0.047 seconds.

tnom = 27
temp = 27
method = trap
totiter = 3
traniter = 0
tranpoints = 0
accept = 0
rejected = 0
matrix size = 18
fillins = 0
solver = Normal
Matrix Compiler1:      64 opcodes
Matrix Compiler2: 1.74 KB object code size
