Circuit: * C:\Users\Gonzalo\Desktop\Gonzalo\GitHub\TProfesional_EEG\LTSpice_projects\Draft1.asc

Direct Newton iteration for .op point succeeded.

Date: Sat Mar 26 18:28:44 2022
Total elapsed time: 0.032 seconds.

tnom = 27
temp = 27
method = modified trap
totiter = 2085
traniter = 2082
tranpoints = 1042
accept = 1042
rejected = 0
matrix size = 13
fillins = 1
solver = Normal
Matrix Compiler1: 478 bytes object code size  0.2/0.2/[0.1]
Matrix Compiler2: 913 bytes object code size  0.1/0.3/[0.1]

